7
Lattice="0.0 0.0 0.0 0.0 0.0 0.0 0.0 0.0 0.0" Properties=species:S:1:pos:R:3:Z:I:1 pbc="F F F"
P      0.00000000       0.00000000       0.00000000       15 
F      0.00000000       0.00000000       1.59000000        9 
F      0.00000000       0.00000000      -1.59000000        9 
F      1.59000000       0.00000000       0.00000000        9 
F     -1.59000000       0.00000000       0.00000000        9 
F      0.00000000       1.59000000       0.00000000        9 
F      0.00000000      -1.59000000       0.00000000        9 
